[TITLE]

[JUNCTIONS]
1 	 6.096000
2 	 15.240000
3 	 15.240000
4 	 15.240000
5 	 24.384000
6 	 24.384000
7 	 24.384000
8 	 24.384000
9 	 36.576000
10 	 36.576000
11 	 36.576000
12 	 15.240000
13 	 15.240000
14 	 15.240000
15 	 15.240000
16 	 36.576000
17 	 36.576000
18 	 15.240000
19 	 15.240000
20 	 6.096000
21 	 15.240000
22 	 36.576000

[RESERVOIRS]
40 	 3.048000

[TANKS]
41 	 65.532000 	 10.668000 	 3.048000 	 10.668000 	 0.924544 	 52.0000001 	 
42 	 65.532000 	 10.668000 	 3.048000 	 10.668000 	 0.924544 	 52.0000002 	 

[PIPES]
1 	 1 	 2 	 3657.600000 	 304.800000 	 120.000000 	 0.000000 	 
2 	 1 	 12 	 3657.600000 	 304.800000 	 70.000000 	 0.000000 	 
3 	 1 	 13 	 3657.600000 	 406.400000 	 70.000000 	 0.000000 	 
4 	 1 	 20 	 30.480000 	 762.000000 	 130.000000 	 0.000000 	 
5 	 2 	 3 	 1828.800000 	 254.000000 	 120.000000 	 0.000000 	 
6 	 2 	 4 	 2743.200000 	 254.000000 	 120.000000 	 0.000000 	 
7 	 2 	 13 	 2743.200000 	 304.800000 	 70.000000 	 0.000000 	 
8 	 2 	 14 	 1828.800000 	 254.000000 	 120.000000 	 0.000000 	 
9 	 3 	 4 	 1828.800000 	 254.000000 	 120.000000 	 0.000000 	 
11 	 4 	 8 	 3657.600000 	 203.200000 	 120.000000 	 0.000000 	 
12 	 4 	 15 	 1828.800000 	 254.000000 	 120.000000 	 0.000000 	 
17 	 8 	 9 	 3657.600000 	 203.200000 	 120.000000 	 0.000000 	 
18 	 8 	 15 	 1828.800000 	 254.000000 	 120.000000 	 0.000000 	 
19 	 8 	 16 	 1828.800000 	 203.200000 	 120.000000 	 0.000000 	 
20 	 8 	 17 	 1828.800000 	 203.200000 	 120.000000 	 0.000000 	 
21 	 9 	 10 	 1828.800000 	 203.200000 	 120.000000 	 0.000000 	 
22 	 10 	 11 	 1828.800000 	 203.200000 	 120.000000 	 0.000000 	 
23 	 10 	 17 	 1828.800000 	 254.000000 	 120.000000 	 0.000000 	 
24 	 11 	 12 	 1828.800000 	 203.200000 	 120.000000 	 0.000000 	 
26 	 12 	 17 	 1828.800000 	 254.000000 	 120.000000 	 0.000000 	 
27 	 12 	 18 	 1828.800000 	 203.200000 	 70.000000 	 0.000000 	 
28 	 13 	 14 	 1828.800000 	 304.800000 	 70.000000 	 0.000000 	 
29 	 13 	 18 	 1828.800000 	 304.800000 	 70.000000 	 0.000000 	 
30 	 13 	 19 	 1828.800000 	 254.000000 	 70.000000 	 0.000000 	 
31 	 14 	 15 	 1828.800000 	 304.800000 	 70.000000 	 0.000000 	 
32 	 14 	 19 	 1828.800000 	 254.000000 	 70.000000 	 0.000000 	 
33 	 14 	 21 	 30.480000 	 304.800000 	 120.000000 	 0.000000 	 
34 	 15 	 16 	 1828.800000 	 254.000000 	 70.000000 	 0.000000 	 
35 	 15 	 19 	 1828.800000 	 254.000000 	 70.000000 	 0.000000 	 
36 	 16 	 17 	 1828.800000 	 203.200000 	 120.000000 	 0.000000 	 
37 	 16 	 18 	 1828.800000 	 304.800000 	 70.000000 	 0.000000 	 
38 	 16 	 19 	 1828.800000 	 254.000000 	 70.000000 	 0.000000 	 
39 	 17 	 18 	 1828.800000 	 203.200000 	 120.000000 	 0.000000 	 
40 	 17 	 22 	 30.480000 	 304.800000 	 120.000000 	 0.000000 	 
41 	 18 	 19 	 1828.800000 	 254.000000 	 70.000000 	 0.000000 	 
142 	 21 	 41 	 0.304800 	 304.800000 	 120.000000 	 0.000000 	 
143 	 22 	 42 	 0.304800 	 304.800000 	 120.000000 	 0.000000 	 
110 	 4 	 5 	 1828.800000 	 254.000000 	 130.000000 	 0.000000 	 
113 	 5 	 6 	 1828.800000 	 254.000000 	 130.000000 	 0.000000 	 
114 	 6 	 7 	 1828.800000 	 254.000000 	 130.000000 	 0.000000 	 
115 	 6 	 8 	 1828.800000 	 254.000000 	 130.000000 	 0.000000 	 
116 	 7 	 8 	 1828.800000 	 254.000000 	 130.000000 	 0.000000 	 
125 	 11 	 17 	 2743.200000 	 254.000000 	 130.000000 	 0.000000 	 

[PUMPS]
78 	 40 	 20 	 HEAD 	 2 	  	 
79 	 40 	 20 	 HEAD 	 2 	  	 
80 	 40 	 20 	 HEAD 	 2 	  	 

[CURVES]
2	0.000000	91.44
2	126.000000	89.0016000
2	252.000000	82.2960000
2	378.000000	70.1040000
2	504.000000	55.1688000
E1	0.000000	0.000000
E1	126.000000	50.000000
E1	252.000000	65.000000
E1	378.000000	55.000000
E1	504.000000	40.000000

[PATTERNS]
1	0.100000	0.100000	0.100000	0.090000	0.090000	0.090000	
1	0.070000	0.070000	0.070000	0.060000	0.060000	0.060000	
1	0.120000	0.120000	0.120000	0.130000	0.130000	0.130000	
1	0.120000	0.120000	0.120000	0.110000	0.110000	0.110000	
2	0.000000	0.000000	0.000000	0.000000	0.000000	0.000000	
2	0.000000	0.000000	0.000000	0.000000	0.000000	0.000000	
2	0.000000	0.000000	0.000000	0.000000	0.000000	0.000000	
2	0.000000	0.000000	0.000000	0.000000	0.000000	0.000000	
3	0.000000	0.000000	0.000000	0.000000	0.000000	0.000000	
3	0.000000	0.000000	0.000000	0.000000	0.000000	0.000000	
3	0.000000	0.000000	0.000000	0.000000	0.000000	0.000000	
3	0.000000	0.000000	0.000000	0.000000	0.000000	0.000000	
4	0.000000	0.000000	0.000000	0.000000	0.000000	0.000000	
4	0.000000	0.000000	0.000000	0.000000	0.000000	0.000000	
4	0.000000	0.000000	0.000000	0.000000	0.000000	0.000000	
4	0.000000	0.000000	0.000000	0.000000	0.000000	0.000000	

[ENERGY]
GLOBAL	EFFIC	75.0000	
DEMAND	CHARGE	0.0000	
PUMP	78	EFFIC	E1
PUMP	79	EFFIC	E1
PUMP	80	EFFIC	E1

[DEMANDS]
1 	 31.500000 	1
2 	 12.600000 	1
3 	 12.600000 	1
4 	 37.800000 	1
5 	 37.800000 	1
6 	 37.800000 	1
7 	 37.800000 	1
8 	 25.200000 	1
9 	 25.200000 	1
10 	 25.200000 	1
11 	 25.200000 	1
12 	 31.500000 	1
13 	 31.500000 	1
14 	 31.500000 	1
15 	 31.500000 	1
16 	 25.200000 	1
17 	 63.000000 	1
18 	 31.500000 	1
19 	 63.000000 	1
20 	 0.000000 	1
21 	 0.000000 	1
22 	 0.000000 	1

[REACTIONS]
ORDER	BULK	1.000000
ORDER	WALL	1.000000
ORDER	TANK	1.000000
GLOBAL	BULK	0.000000
GLOBAL	WALL	0.000000

[MIXING]
41 	 MIXED 	 1.000000
42 	 MIXED 	 1.000000

[OPTIONS]
UNITS 	 LPS 	 
PRESSURE 	 PSI 	 
HEADLOSS 	 H-W 	 
PATTERN 	 1 	 
UNBALANCED 	 CONTINUE 	 10
QUALITY 	 NONE 	 
DEMAND 	 MULTIPLIER 	 1.0000
EMITTER 	 EXPONENT 	 0.5000
VISCOSITY 	 1.000000 	 
DIFFUSIVITY 	 1.000000 	 
SPECIFIC 	 GRAVITY 	 1.000000
TRIALS 	 40 	 
ACCURACY 	 0.00100000 	 
TOLERANCE 	 0.01000000 	 
CHECKFREQ 	 2 	 
MAXCHECK 	 10 	 
DAMPLIMIT 	 0.00000000 	 

[TIMES]
DURATION 	 24:00:00 	 
HYDRAULIC 	 TIMESTEP 	 1:00:00
QUALITY 	 TIMESTEP 	 1:00:00
REPORT 	 TIMESTEP 	 1:00:00
REPORT 	 START 	 0:00:00
PATTERN 	 TIMESTEP 	 1:00:00
PATTERN 	 START 	 0:00:00
RULE 	 TIMESTEP 	 0:06:00
START 	 CLOCKTIME 	 18:00:00
STATISTIC 	 NONE 	 

[REPORT]
PAGESIZE 	 0 	 
STATUS 	 NO 	 
SUMMARY 	 NO 	 
ENERGY 	 NO 	 
NODES 	 NONE 	 
LINKS 	 NONE 	 
Elevation 	 NO 	 
Demand 	 PRECISION 	 2
Head 	 PRECISION 	 2
Pressure 	 PRECISION 	 2
Quality 	 NO 	 
Length 	 NO 	 
Diameter 	 NO 	 
Flow 	 PRECISION 	 2
Velocity 	 PRECISION 	 2
Headloss 	 PRECISION 	 2
Quality 	 NO 	 
State 	 NO 	 
Setting 	 NO 	 
Reaction 	 NO 	 

[COORDINATES]
1 	 7682.330000 	 3371.150000
2 	 7633.710000 	 5737.440000
3 	 7520.260000 	 7293.350000
4 	 6175.040000 	 7568.880000
5 	 5591.570000 	 8460.290000
6 	 4100.490000 	 8071.310000
7 	 3192.870000 	 7763.370000
8 	 3321.190000 	 6696.550000
9 	 1305.620000 	 4850.970000
10 	 2317.450000 	 3588.200000
11 	 3701.630000 	 2892.060000
12 	 4846.030000 	 3354.940000
13 	 6450.570000 	 4424.640000
14 	 6466.770000 	 5769.850000
15 	 5094.450000 	 6482.090000
16 	 4017.860000 	 5615.960000
17 	 3005.490000 	 4292.430000
18 	 4846.030000 	 4440.840000
19 	 5332.250000 	 5332.250000
20 	 8544.180000 	 3371.150000
21 	 6094.000000 	 6499.190000
22 	 2422.680000 	 4519.090000
40 	 8700.600000 	 3371.150000
41 	 6094.000000 	 6600.190000
42 	 2422.680000 	 4700.090000

[BACKDROP]
DIMENSIONS 	 935.87 	 2613.65 	 9070.35 	 8738.70
UNITS 	 None 	  	  	 
FILE 	  	  	  	 
OFFSET 	 0.00 	 0.00 	  	 

[END]