[TITLE]
ANYTOWN example 

[JUNCTIONS]
 1                                    20.0000
 2                                    50.0000
 3                                    50.0000
 4                                    50.0000
 5                                    80.0000
 6                                    80.0000
 7                                    80.0000
 8                                    80.0000
 9                                   120.0000
 10                                  120.0000
 11                                  120.0000
 12                                   50.0000
 13                                   50.0000
 14                                   50.0000
 15                                   50.0000
 16                                  120.0000
 17                                  120.0000
 18                                   50.0000
 19                                   50.0000
 20                                   20.0000
 21                                   50.0000
 22                                  120.0000

[RESERVOIRS]
 40                                   10.0000 

[TANKS]
 41                                  215.0000      35.0000      10.0000      35.0000      32.6500    8372.5211 
 42                                  215.0000      35.0000      10.0000      35.0000      32.6500    8372.5211 

[PIPES]
 1                               1                               2                                 12000.0000      12.0000     120.0000       0.0000 
 2                               1                               12                                12000.0000      12.0000      70.0000       0.0000 
 3                               1                               13                                12000.0000      16.0000      70.0000       0.0000 
 4                               1                               20                                  100.0000      30.0000     130.0000       0.0000 
 5                               2                               3                                  6000.0000      10.0000     120.0000       0.0000 
 6                               2                               4                                  9000.0000      10.0000     120.0000       0.0000 
 7                               2                               13                                 9000.0000      12.0000      70.0000       0.0000 
 8                               2                               14                                 6000.0000      10.0000     120.0000       0.0000 
 9                               3                               4                                  6000.0000      10.0000     120.0000       0.0000 
 11                              4                               8                                 12000.0000       8.0000     120.0000       0.0000 
 12                              4                               15                                 6000.0000      10.0000     120.0000       0.0000 
 17                              8                               9                                 12000.0000       8.0000     120.0000       0.0000 
 18                              8                               15                                 6000.0000      10.0000     120.0000       0.0000 
 19                              8                               16                                 6000.0000       8.0000     120.0000       0.0000 
 20                              8                               17                                 6000.0000       8.0000     120.0000       0.0000 
 21                              9                               10                                 6000.0000       8.0000     120.0000       0.0000 
 22                              10                              11                                 6000.0000       8.0000     120.0000       0.0000 
 23                              10                              17                                 6000.0000      10.0000     120.0000       0.0000 
 24                              11                              12                                 6000.0000       8.0000     120.0000       0.0000 
 26                              12                              17                                 6000.0000      10.0000     120.0000       0.0000 
 27                              12                              18                                 6000.0000       8.0000      70.0000       0.0000 
 28                              13                              14                                 6000.0000      12.0000      70.0000       0.0000 
 29                              13                              18                                 6000.0000      12.0000      70.0000       0.0000 
 30                              13                              19                                 6000.0000      10.0000      70.0000       0.0000 
 31                              14                              15                                 6000.0000      12.0000      70.0000       0.0000 
 32                              14                              19                                 6000.0000      10.0000      70.0000       0.0000 
 33                              14                              21                                  100.0000      12.0000     120.0000       0.0000 
 34                              15                              16                                 6000.0000      10.0000      70.0000       0.0000 
 35                              15                              19                                 6000.0000      10.0000      70.0000       0.0000 
 36                              16                              17                                 6000.0000       8.0000     120.0000       0.0000 
 37                              16                              18                                 6000.0000      12.0000      70.0000       0.0000 
 38                              16                              19                                 6000.0000      10.0000      70.0000       0.0000 
 39                              17                              18                                 6000.0000       8.0000     120.0000       0.0000 
 40                              17                              22                                  100.0000      12.0000     120.0000       0.0000 
 41                              18                              19                                 6000.0000      10.0000      70.0000       0.0000 
 142                             21                              41                                    1.0000      12.0000     120.0000       0.0000 
 143                             22                              42                                    1.0000      12.0000     120.0000       0.0000 
 110                             4                               5                                  6000.0000      10.0000     130.0000       0.0000 
 113                             5                               6                                  6000.0000      10.0000     130.0000       0.0000 
 114                             6                               7                                  6000.0000      10.0000     130.0000       0.0000 
 115                             6                               8                                  6000.0000      10.0000     130.0000       0.0000 
 116                             7                               8                                  6000.0000      10.0000     130.0000       0.0000 
 125                             11                              17                                 9000.0000      10.0000     130.0000       0.0000 

[PUMPS]
 78                              40                              20                               HEAD 2
 79                              40                              20                               HEAD 2
 80                              40                              20                               HEAD 2

[VALVES]

[DEMANDS]
 1                                   500.000000    1
 2                                   200.000000    1
 3                                   200.000000    1
 4                                   600.000000    1
 5                                   600.000000    1
 6                                   600.000000    1
 7                                   600.000000    1
 8                                   400.000000    1
 9                                   400.000000    1
 10                                  400.000000    1
 11                                  400.000000    1
 12                                  500.000000    1
 13                                  500.000000    1
 14                                  500.000000    1
 15                                  500.000000    1
 16                                  400.000000    1
 17                                 1000.000000    1
 18                                  500.000000    1
 19                                 1000.000000    1
 20                                    0.000000    1
 21                                    0.000000    1
 22                                    0.000000    1

[EMITTERS]

[STATUS]

[PATTERNS]
 1                                     0.1000       0.1000       0.1000       0.0900       0.0900       0.0900
 1                                     0.0700       0.0700       0.0700       0.0600       0.0600       0.0600
 1                                     0.1200       0.1200       0.1200       0.1300       0.1300       0.1300
 1                                     0.1200       0.1200       0.1200       0.1100       0.1100       0.1100
 2                                     0.0000       0.0000       0.0000       0.0000       0.0000       0.0000
 2                                     0.0000       0.0000       0.0000       0.0000       0.0000       0.0000
 2                                     0.0000       0.0000       0.0000       0.0000       0.0000       0.0000
 2                                     0.0000       0.0000       0.0000       0.0000       0.0000       0.0000
 3                                     0.0000       0.0000       0.0000       0.0000       0.0000       0.0000
 3                                     0.0000       0.0000       0.0000       0.0000       0.0000       0.0000
 3                                     0.0000       0.0000       0.0000       0.0000       0.0000       0.0000
 3                                     0.0000       0.0000       0.0000       0.0000       0.0000       0.0000
 4                                     0.0000       0.0000       0.0000       0.0000       0.0000       0.0000
 4                                     0.0000       0.0000       0.0000       0.0000       0.0000       0.0000
 4                                     0.0000       0.0000       0.0000       0.0000       0.0000       0.0000
 4                                     0.0000       0.0000       0.0000       0.0000       0.0000       0.0000

[CURVES]
 2                                     0.0000     300.0000
 2                                  2000.0000     292.0000
 2                                  4000.0000     270.0000
 2                                  6000.0000     230.0000
 2                                  8000.0000     181.0000
 E1                                    0.0000       0.0000
 E1                                 2000.0000      50.0000
 E1                                 4000.0000      65.0000
 E1                                 6000.0000      55.0000
 E1                                 8000.0000      40.0000

[CONTROLS]

[QUALITY]

[SOURCES]

[MIXING]
 41                              MIXED          1.0000
 42                              MIXED          1.0000

[REACTIONS]
 ORDER  BULK            1.00
 ORDER  WALL            1
 ORDER  TANK            1.00
 GLOBAL BULK            0.000000
 GLOBAL WALL            0.000000

[ENERGY]
 GLOBAL EFFIC        75.0000
 DEMAND CHARGE       0.0000
 PUMP 78                              EFFIC   E1
 PUMP 79                              EFFIC   E1
 PUMP 80                              EFFIC   E1

[TIMES]
 DURATION            24:00:00
 HYDRAULIC TIMESTEP  1:00:00
 QUALITY TIMESTEP    1:00:00
 REPORT TIMESTEP     1:00:00
 REPORT START        0:00:00
 PATTERN TIMESTEP    1:00:00
 PATTERN START       0:00:00
 RULE TIMESTEP       0:06:00
 START CLOCKTIME     18:00:00
 STATISTIC           NONE

[OPTIONS]
 UNITS               GPM
 PRESSURE            PSI
 HEADLOSS            H-W
 PATTERN             1
 UNBALANCED          CONTINUE 10
 QUALITY             NONE
 DEMAND MULTIPLIER   1.0000
 EMITTER EXPONENT    0.5000
 VISCOSITY           1.000000
 DIFFUSIVITY         1.000000
 SPECIFIC GRAVITY    1.000000
 TRIALS              40
 ACCURACY            0.00100000
 TOLERANCE           0.01000000
 CHECKFREQ           2
 MAXCHECK            10
 DAMPLIMIT           0.00000000

[REPORT]
 PAGESIZE            0
 STATUS              NO
 SUMMARY             NO
 ENERGY              NO
 NODES               NONE
 LINKS               NONE
 Elevation           NO
 Demand              PRECISION 2
 Head                PRECISION 2
 Pressure            PRECISION 2
 Quality             NO
 Length              NO
 Diameter            NO
 Flow                PRECISION 2
 Velocity            PRECISION 2
 Headloss            PRECISION 2
 Quality             NO
 State               NO
 Setting             NO
 Reaction            NO
[TAGS]

[RULES]

[COORDINATES]
;Node            	X-Coord         	Y-Coord
 1               	7682.33         	3371.15         
 2               	7633.71         	5737.44         
 3               	7520.26         	7293.35         
 4               	6175.04         	7568.88         
 5               	5591.57         	8460.29         
 6               	4100.49         	8071.31         
 7               	3192.87         	7763.37         
 8               	3321.19         	6696.55         
 9               	1305.62         	4850.97         
 10              	2317.45         	3588.20         
 11              	3701.63         	2892.06         
 12              	4846.03         	3354.94         
 13              	6450.57         	4424.64         
 14              	6466.77         	5769.85         
 15              	5094.45         	6482.09         
 16              	4017.86         	5615.96         
 17              	3005.49         	4292.43         
 18              	4846.03         	4440.84         
 19              	5332.25         	5332.25         
 20              	8544.18         	3371.15         
 21              	6094.00         	6499.19         
 22              	2422.68         	4519.09         
 40              	8700.60         	3371.15         
 41              	6094.00         	6600.19         
 42              	2422.68         	4700.09         

[VERTICES]
;Link            	X-Coord         	Y-Coord

[LABELS]
;X-Coord           Y-Coord          Label & Anchor Node

[BACKDROP]
 DIMENSIONS     	935.87          	2613.65         	9070.35         	8738.70         
 UNITS          	None
 FILE           	
 OFFSET         	0.00            	0.00            


[END]