[TITLE]

[JUNCTIONS]
1 	 39.490000
2 	 39.620000
3 	 38.700000
4 	 37.250000
5 	 36.270000
6 	 35.950000
7 	 35.950000
8 	 36.090000
9 	 36.180000
10 	 37.000000
11 	 36.500000
12 	 37.390000
13 	 38.070000
14 	 37.020000
15 	 41.260000
16 	 39.350000
17 	 39.530000
18 	 36.590000
19 	 36.760000
20 	 37.720000
21 	 37.310000
22 	 37.620000
23 	 36.990000
24 	 35.200000
25 	 35.110000
26 	 34.650000
27 	 34.330000
28 	 36.150000
29 	 36.300000
30 	 36.100000
31 	 36.140000
32 	 35.800000
33 	 33.260000
34 	 33.340000
35 	 33.510000
36 	 32.700000
37 	 32.650000
38 	 32.560000
39 	 33.560000
40 	 31.590000
41 	 31.380000
42 	 32.670000
43 	 33.500000
44 	 33.570000
45 	 33.770000
46 	 34.140000
47 	 33.680000
48 	 33.710000
49 	 31.680000
50 	 33.340000
51 	 32.830000
52 	 32.780000
53 	 39.280000
54 	 37.120000
55 	 36.480000
56 	 36.420000
57 	 36.130000
58 	 36.050000
59 	 36.770000
60 	 35.480000
61 	 35.050000
62 	 35.100000
63 	 37.950000
64 	 38.440000
65 	 37.810000
66 	 38.220000
67 	 38.730000
68 	 38.950000
69 	 39.700000
70 	 40.590000
71 	 40.810000
72 	 41.060000
73 	 41.450000
74 	 41.830000
75 	 41.440000
76 	 41.090000
77 	 40.740000
78 	 38.600000
79 	 36.910000
80 	 36.750000
81 	 36.810000
82 	 37.050000
83 	 35.880000
84 	 36.450000
85 	 36.160000
86 	 34.990000
87 	 35.610000
88 	 34.890000
89 	 35.590000
90 	 35.700000
91 	 35.200000
92 	 35.640000
93 	 35.930000
94 	 37.640000
95 	 37.170000
96 	 37.100000
97 	 36.970000
98 	 37.000000
99 	 36.740000
100 	 34.780000
101 	 34.260000
102 	 33.660000
103 	 33.780000
104 	 33.750000
105 	 33.380000
106 	 34.850000
107 	 34.270000
108 	 34.300000
109 	 33.950000
110 	 33.920000
111 	 32.320000
112 	 34.760000
113 	 34.210000
114 	 34.920000
115 	 32.960000
116 	 30.690000
117 	 30.590000
118 	 30.730000
119 	 30.700000
120 	 31.020000
121 	 31.030000
122 	 31.750000
123 	 32.000000
124 	 32.050000
125 	 32.100000
126 	 33.760000
127 	 32.270000
128 	 31.860000
129 	 32.420000
130 	 33.000000
131 	 33.630000
132 	 36.370000
133 	 35.690000
134 	 35.520000
135 	 35.560000
136 	 35.920000
137 	 35.370000
138 	 35.060000
139 	 34.120000
140 	 39.350000
141 	 39.100000
142 	 39.840000
143 	 39.840000
144 	 39.450000
145 	 39.700000
146 	 37.950000
147 	 37.610000
148 	 37.950000
149 	 35.690000
150 	 35.320000
151 	 35.810000
152 	 35.810000
153 	 36.020000
154 	 38.250000
155 	 37.500000
156 	 37.540000
157 	 37.080000
158 	 36.760000
159 	 35.880000
160 	 35.770000
161 	 34.700000
162 	 35.370000
163 	 34.990000
164 	 35.930000
165 	 36.270000
166 	 32.670000
167 	 32.750000
168 	 32.880000
169 	 34.090000
170 	 36.090000
171 	 36.050000
172 	 36.040000
173 	 36.020000
174 	 31.760000
175 	 31.910000
176 	 31.800000
177 	 31.480000
178 	 31.120000
179 	 31.100000
180 	 31.190000
181 	 30.390000
182 	 30.550000
183 	 31.130000
184 	 31.810000
185 	 32.340000
186 	 32.830000
187 	 33.690000
188 	 33.170000
189 	 33.230000
190 	 33.340000
191 	 33.770000
192 	 33.770000
193 	 32.200000
194 	 34.410000
195 	 33.390000
196 	 34.340000
197 	 35.030000
198 	 34.440000
199 	 34.530000
200 	 34.940000
201 	 34.700000
202 	 36.700000
203 	 36.200000
204 	 35.030000
205 	 36.770000
206 	 36.200000
207 	 37.880000
208 	 38.030000
209 	 36.860000
210 	 37.240000
211 	 36.660000
212 	 36.490000
213 	 37.300000
214 	 40.300000
215 	 39.850000
216 	 41.000000
217 	 41.160000
218 	 35.050000
219 	 33.920000
220 	 32.140000
221 	 34.170000
222 	 35.100000
223 	 31.550000
224 	 31.750000
225 	 32.070000
226 	 31.940000
227 	 31.660000
228 	 31.040000
229 	 31.050000
230 	 38.490000
231 	 35.680000
232 	 35.390000
233 	 34.890000
234 	 34.860000
235 	 34.990000
236 	 32.540000
237 	 34.410000
238 	 36.160000
239 	 35.300000
240 	 35.170000
241 	 32.920000
242 	 33.070000
243 	 31.910000
244 	 32.000000
245 	 32.050000
246 	 32.050000
247 	 30.700000
248 	 31.330000
249 	 36.300000
250 	 35.830000
251 	 36.950000
252 	 38.010000
253 	 36.650000
254 	 36.910000
255 	 36.770000
256 	 31.500000
257 	 38.650000
258 	 39.540000
259 	 39.580000
260 	 39.580000
261 	 40.550000
262 	 40.790000
263 	 40.950000
264 	 37.760000
265 	 35.960000
266 	 36.810000
267 	 36.210000
268 	 35.610000
add_node-123-1 	 36.034680

[RESERVOIRS]
269 	 72.000000
270 	 73.800000
271 	 73.000000
272 	 74.500000
add_node-123-1-R2-r 	 36.034680

[PIPES]
1 	 1 	 16 	 46.840000 	 125.000000 	 130.000000 	 0.000000 	 
2 	 16 	 2 	 267.680000 	 100.000000 	 130.000000 	 0.000000 	 
3 	 2 	 3 	 541.070000 	 100.000000 	 130.000000 	 0.000000 	 
4 	 3 	 4 	 542.290000 	 100.000000 	 130.000000 	 0.000000 	 
5 	 4 	 5 	 404.720000 	 100.000000 	 130.000000 	 0.000000 	 
6 	 5 	 206 	 151.670000 	 100.000000 	 130.000000 	 0.000000 	 
7 	 206 	 6 	 341.570000 	 100.000000 	 130.000000 	 0.000000 	 
8 	 1 	 140 	 39.910000 	 100.000000 	 130.000000 	 0.000000 	 
9 	 140 	 143 	 269.730000 	 100.000000 	 130.000000 	 0.000000 	 
10 	 143 	 145 	 45.920000 	 100.000000 	 130.000000 	 0.000000 	 
11 	 145 	 146 	 890.090000 	 100.000000 	 130.000000 	 0.000000 	 
12 	 146 	 148 	 33.790000 	 100.000000 	 130.000000 	 0.000000 	 
13 	 148 	 63 	 6.030000 	 100.000000 	 130.000000 	 0.000000 	 
14 	 63 	 149 	 367.920000 	 125.000000 	 130.000000 	 0.000000 	 
15 	 149 	 150 	 97.660000 	 125.000000 	 130.000000 	 0.000000 	 
16 	 150 	 60 	 322.190000 	 100.000000 	 130.000000 	 0.000000 	 
17 	 60 	 61 	 359.480000 	 100.000000 	 130.000000 	 0.000000 	 
18 	 61 	 218 	 199.590000 	 100.000000 	 130.000000 	 0.000000 	 
19 	 1 	 141 	 57.060000 	 200.000000 	 130.000000 	 0.000000 	 
20 	 141 	 142 	 223.410000 	 200.000000 	 130.000000 	 0.000000 	 
21 	 142 	 144 	 47.030000 	 200.000000 	 130.000000 	 0.000000 	 
22 	 144 	 257 	 782.670000 	 200.000000 	 130.000000 	 0.000000 	 
23 	 257 	 53 	 231.870000 	 125.000000 	 130.000000 	 0.000000 	 
24 	 53 	 251 	 279.840000 	 100.000000 	 130.000000 	 0.000000 	 
25 	 251 	 57 	 145.700000 	 100.000000 	 130.000000 	 0.000000 	 
26 	 57 	 58 	 81.100000 	 100.000000 	 130.000000 	 0.000000 	 
27 	 58 	 59 	 550.170000 	 100.000000 	 130.000000 	 0.000000 	 
28 	 53 	 230 	 155.630000 	 100.000000 	 130.000000 	 0.000000 	 
29 	 230 	 252 	 357.810000 	 100.000000 	 130.000000 	 0.000000 	 
30 	 252 	 3 	 267.320000 	 100.000000 	 130.000000 	 0.000000 	 
31 	 3 	 13 	 612.500000 	 100.000000 	 130.000000 	 0.000000 	 
32 	 13 	 12 	 160.500000 	 100.000000 	 130.000000 	 0.000000 	 
33 	 12 	 11 	 531.710000 	 100.000000 	 130.000000 	 0.000000 	 
34 	 1 	 258 	 41.910000 	 200.000000 	 130.000000 	 0.000000 	 
35 	 258 	 259 	 95.220000 	 200.000000 	 130.000000 	 0.000000 	 
36 	 259 	 260 	 25.130000 	 200.000000 	 130.000000 	 0.000000 	 
37 	 260 	 215 	 158.120000 	 200.000000 	 130.000000 	 0.000000 	 
38 	 215 	 261 	 95.400000 	 200.000000 	 130.000000 	 0.000000 	 
39 	 261 	 77 	 52.920000 	 200.000000 	 130.000000 	 0.000000 	 
40 	 77 	 262 	 44.920000 	 200.000000 	 130.000000 	 0.000000 	 
41 	 262 	 216 	 127.050000 	 200.000000 	 130.000000 	 0.000000 	 
42 	 216 	 263 	 56.680000 	 200.000000 	 130.000000 	 0.000000 	 
43 	 263 	 76 	 181.290000 	 200.000000 	 130.000000 	 0.000000 	 
44 	 76 	 217 	 220.900000 	 200.000000 	 130.000000 	 0.000000 	 
45 	 217 	 75 	 67.650000 	 200.000000 	 130.000000 	 0.000000 	 
46 	 75 	 74 	 36.060000 	 200.000000 	 130.000000 	 0.000000 	 
47 	 74 	 73 	 242.290000 	 150.000000 	 130.000000 	 0.000000 	 
48 	 73 	 72 	 70.450000 	 150.000000 	 130.000000 	 0.000000 	 
49 	 72 	 71 	 112.830000 	 150.000000 	 130.000000 	 0.000000 	 
50 	 71 	 70 	 105.720000 	 150.000000 	 130.000000 	 0.000000 	 
51 	 70 	 69 	 199.420000 	 150.000000 	 130.000000 	 0.000000 	 
52 	 69 	 68 	 180.640000 	 125.000000 	 130.000000 	 0.000000 	 
53 	 68 	 78 	 288.760000 	 125.000000 	 130.000000 	 0.000000 	 
54 	 78 	 154 	 69.260000 	 100.000000 	 130.000000 	 0.000000 	 
55 	 154 	 79 	 718.450000 	 100.000000 	 130.000000 	 0.000000 	 
56 	 79 	 155 	 390.780000 	 100.000000 	 130.000000 	 0.000000 	 
57 	 155 	 156 	 24.000000 	 125.000000 	 130.000000 	 0.000000 	 
58 	 156 	 95 	 504.520000 	 125.000000 	 130.000000 	 0.000000 	 
59 	 95 	 96 	 41.780000 	 150.000000 	 130.000000 	 0.000000 	 
60 	 96 	 97 	 367.930000 	 150.000000 	 130.000000 	 0.000000 	 
61 	 97 	 157 	 101.860000 	 150.000000 	 130.000000 	 0.000000 	 
62 	 157 	 98 	 125.360000 	 150.000000 	 130.000000 	 0.000000 	 
63 	 98 	 158 	 699.760000 	 150.000000 	 130.000000 	 0.000000 	 
64 	 158 	 136 	 448.050000 	 200.000000 	 130.000000 	 0.000000 	 
65 	 136 	 159 	 114.290000 	 200.000000 	 130.000000 	 0.000000 	 
66 	 159 	 160 	 197.300000 	 200.000000 	 130.000000 	 0.000000 	 
67 	 160 	 137 	 235.980000 	 200.000000 	 130.000000 	 0.000000 	 
68 	 137 	 135 	 224.870000 	 200.000000 	 130.000000 	 0.000000 	 
69 	 135 	 222 	 176.730000 	 125.000000 	 130.000000 	 0.000000 	 
70 	 222 	 161 	 76.440000 	 100.000000 	 130.000000 	 0.000000 	 
71 	 161 	 131 	 356.940000 	 100.000000 	 130.000000 	 0.000000 	 
72 	 131 	 242 	 443.790000 	 100.000000 	 130.000000 	 0.000000 	 
73 	 242 	 130 	 20.550000 	 100.000000 	 130.000000 	 0.000000 	 
74 	 130 	 241 	 113.330000 	 100.000000 	 130.000000 	 0.000000 	 
75 	 241 	 168 	 25.960000 	 100.000000 	 130.000000 	 0.000000 	 
76 	 168 	 167 	 145.040000 	 100.000000 	 130.000000 	 0.000000 	 
77 	 167 	 166 	 55.240000 	 100.000000 	 130.000000 	 0.000000 	 
78 	 166 	 129 	 208.220000 	 100.000000 	 130.000000 	 0.000000 	 
79 	 129 	 125 	 190.430000 	 100.000000 	 130.000000 	 0.000000 	 
80 	 125 	 246 	 70.980000 	 100.000000 	 130.000000 	 0.000000 	 
81 	 246 	 245 	 52.040000 	 100.000000 	 130.000000 	 0.000000 	 
82 	 245 	 124 	 34.030000 	 100.000000 	 130.000000 	 0.000000 	 
83 	 124 	 225 	 79.470000 	 100.000000 	 130.000000 	 0.000000 	 
84 	 225 	 226 	 277.990000 	 100.000000 	 130.000000 	 0.000000 	 
85 	 176 	 227 	 86.030000 	 100.000000 	 130.000000 	 0.000000 	 
86 	 227 	 177 	 296.250000 	 100.000000 	 130.000000 	 0.000000 	 
87 	 177 	 180 	 111.300000 	 100.000000 	 130.000000 	 0.000000 	 
88 	 180 	 178 	 123.370000 	 100.000000 	 130.000000 	 0.000000 	 
89 	 178 	 179 	 196.270000 	 100.000000 	 130.000000 	 0.000000 	 
90 	 179 	 228 	 198.460000 	 100.000000 	 130.000000 	 0.000000 	 
91 	 228 	 229 	 75.620000 	 100.000000 	 130.000000 	 0.000000 	 
92 	 229 	 121 	 110.140000 	 100.000000 	 130.000000 	 0.000000 	 
93 	 121 	 118 	 423.570000 	 100.000000 	 130.000000 	 0.000000 	 
94 	 118 	 117 	 116.570000 	 100.000000 	 130.000000 	 0.000000 	 
95 	 117 	 181 	 100.610000 	 100.000000 	 130.000000 	 0.000000 	 
96 	 181 	 182 	 164.840000 	 100.000000 	 130.000000 	 0.000000 	 
97 	 182 	 116 	 47.490000 	 100.000000 	 130.000000 	 0.000000 	 
98 	 116 	 247 	 87.540000 	 100.000000 	 130.000000 	 0.000000 	 
99 	 49 	 184 	 189.270000 	 150.000000 	 130.000000 	 0.000000 	 
100 	 184 	 41 	 244.800000 	 150.000000 	 130.000000 	 0.000000 	 
101 	 41 	 248 	 293.470000 	 150.000000 	 130.000000 	 0.000000 	 
102 	 248 	 40 	 308.640000 	 150.000000 	 130.000000 	 0.000000 	 
103 	 40 	 39 	 566.570000 	 150.000000 	 130.000000 	 0.000000 	 
104 	 226 	 176 	 95.140000 	 100.000000 	 130.000000 	 0.000000 	 
105 	 247 	 183 	 248.550000 	 100.000000 	 130.000000 	 0.000000 	 
106 	 183 	 49 	 187.780000 	 100.000000 	 130.000000 	 0.000000 	 
107 	 39 	 38 	 357.670000 	 125.000000 	 130.000000 	 0.000000 	 
108 	 38 	 37 	 700.570000 	 100.000000 	 130.000000 	 0.000000 	 
109 	 37 	 193 	 404.460000 	 100.000000 	 130.000000 	 0.000000 	 
110 	 193 	 36 	 160.860000 	 125.000000 	 130.000000 	 0.000000 	 
111 	 36 	 194 	 557.420000 	 125.000000 	 130.000000 	 0.000000 	 
112 	 194 	 27 	 127.020000 	 150.000000 	 130.000000 	 0.000000 	 
113 	 27 	 26 	 46.660000 	 150.000000 	 130.000000 	 0.000000 	 
114 	 26 	 195 	 674.320000 	 150.000000 	 130.000000 	 0.000000 	 
115 	 195 	 33 	 50.760000 	 125.000000 	 130.000000 	 0.000000 	 
116 	 26 	 196 	 138.540000 	 100.000000 	 130.000000 	 0.000000 	 
117 	 196 	 25 	 199.330000 	 100.000000 	 130.000000 	 0.000000 	 
118 	 25 	 232 	 231.120000 	 100.000000 	 130.000000 	 0.000000 	 
119 	 232 	 24 	 187.060000 	 100.000000 	 130.000000 	 0.000000 	 
120 	 24 	 231 	 240.640000 	 100.000000 	 130.000000 	 0.000000 	 
121 	 231 	 7 	 173.440000 	 125.000000 	 130.000000 	 0.000000 	 
122 	 7 	 6 	 23.580000 	 100.000000 	 130.000000 	 0.000000 	 
123 	 6 	 28 	 526.740000 	 125.000000 	 130.000000 	 0.000000 	 Closed;
124 	 28 	 249 	 500.720000 	 100.000000 	 130.000000 	 0.000000 	 
125 	 249 	 29 	 15.290000 	 100.000000 	 130.000000 	 0.000000 	 
126 	 7 	 8 	 265.920000 	 125.000000 	 130.000000 	 0.000000 	 
127 	 8 	 23 	 355.510000 	 125.000000 	 130.000000 	 0.000000 	 
128 	 23 	 207 	 189.780000 	 125.000000 	 130.000000 	 0.000000 	 
129 	 207 	 208 	 28.180000 	 125.000000 	 130.000000 	 0.000000 	 
130 	 208 	 22 	 129.340000 	 125.000000 	 130.000000 	 0.000000 	 
131 	 22 	 21 	 361.240000 	 125.000000 	 130.000000 	 0.000000 	 
132 	 21 	 264 	 223.520000 	 150.000000 	 130.000000 	 0.000000 	 
133 	 20 	 210 	 185.170000 	 150.000000 	 130.000000 	 0.000000 	 
134 	 210 	 209 	 154.950000 	 150.000000 	 130.000000 	 0.000000 	 
135 	 209 	 19 	 34.710000 	 200.000000 	 130.000000 	 0.000000 	 
136 	 264 	 20 	 31.140000 	 150.000000 	 130.000000 	 0.000000 	 
137 	 19 	 253 	 42.520000 	 200.000000 	 130.000000 	 0.000000 	 
138 	 253 	 18 	 356.450000 	 200.000000 	 130.000000 	 0.000000 	 
139 	 18 	 211 	 128.820000 	 200.000000 	 130.000000 	 0.000000 	 
140 	 211 	 212 	 140.660000 	 200.000000 	 130.000000 	 0.000000 	 
141 	 212 	 11 	 113.320000 	 200.000000 	 130.000000 	 0.000000 	 
142 	 11 	 10 	 555.230000 	 150.000000 	 130.000000 	 0.000000 	 
143 	 10 	 4 	 272.680000 	 150.000000 	 130.000000 	 0.000000 	 
144 	 59 	 203 	 315.880000 	 100.000000 	 130.000000 	 0.000000 	 
145 	 203 	 202 	 284.930000 	 100.000000 	 130.000000 	 0.000000 	 
146 	 202 	 31 	 97.930000 	 125.000000 	 130.000000 	 0.000000 	 
147 	 265 	 32 	 262.940000 	 100.000000 	 130.000000 	 0.000000 	 
148 	 32 	 33 	 635.820000 	 100.000000 	 130.000000 	 0.000000 	 
149 	 33 	 34 	 415.730000 	 150.000000 	 130.000000 	 0.000000 	 
150 	 34 	 35 	 122.600000 	 150.000000 	 130.000000 	 0.000000 	 
151 	 265 	 31 	 29.560000 	 100.000000 	 130.000000 	 0.000000 	 
152 	 59 	 205 	 33.800000 	 100.000000 	 130.000000 	 0.000000 	 
153 	 205 	 88 	 377.120000 	 100.000000 	 130.000000 	 0.000000 	 
154 	 88 	 89 	 629.170000 	 150.000000 	 130.000000 	 0.000000 	 
155 	 89 	 90 	 133.280000 	 200.000000 	 130.000000 	 0.000000 	 
156 	 90 	 91 	 348.050000 	 200.000000 	 130.000000 	 0.000000 	 
157 	 91 	 234 	 292.890000 	 300.000000 	 130.000000 	 0.000000 	 
158 	 234 	 109 	 488.990000 	 300.000000 	 130.000000 	 0.000000 	 
159 	 138 	 235 	 289.880000 	 100.000000 	 130.000000 	 0.000000 	 
160 	 235 	 110 	 486.720000 	 100.000000 	 130.000000 	 0.000000 	 
161 	 102 	 106 	 260.920000 	 200.000000 	 130.000000 	 0.000000 	 
162 	 106 	 91 	 163.580000 	 200.000000 	 130.000000 	 0.000000 	 
163 	 48 	 108 	 424.070000 	 200.000000 	 130.000000 	 0.000000 	 
164 	 108 	 109 	 173.660000 	 200.000000 	 130.000000 	 0.000000 	 
165 	 109 	 110 	 99.550000 	 150.000000 	 130.000000 	 0.000000 	 
166 	 110 	 111 	 307.920000 	 150.000000 	 130.000000 	 0.000000 	 
167 	 59 	 204 	 283.840000 	 100.000000 	 130.000000 	 0.000000 	 
168 	 204 	 200 	 141.490000 	 125.000000 	 130.000000 	 0.000000 	 
169 	 200 	 100 	 58.270000 	 125.000000 	 130.000000 	 0.000000 	 
170 	 100 	 199 	 79.590000 	 150.000000 	 130.000000 	 0.000000 	 
171 	 199 	 198 	 39.410000 	 150.000000 	 130.000000 	 0.000000 	 
172 	 198 	 101 	 126.250000 	 150.000000 	 130.000000 	 0.000000 	 
173 	 29 	 30 	 61.390000 	 100.000000 	 130.000000 	 0.000000 	 
174 	 30 	 31 	 73.730000 	 100.000000 	 130.000000 	 0.000000 	 
175 	 31 	 250 	 83.160000 	 125.000000 	 130.000000 	 0.000000 	 
176 	 250 	 197 	 118.220000 	 150.000000 	 130.000000 	 0.000000 	 
177 	 197 	 101 	 297.210000 	 150.000000 	 130.000000 	 0.000000 	 
178 	 101 	 221 	 17.080000 	 200.000000 	 130.000000 	 0.000000 	 
179 	 221 	 139 	 58.110000 	 200.000000 	 130.000000 	 0.000000 	 
180 	 139 	 219 	 135.500000 	 200.000000 	 130.000000 	 0.000000 	 
181 	 139 	 192 	 255.850000 	 100.000000 	 130.000000 	 0.000000 	 
182 	 192 	 191 	 40.650000 	 100.000000 	 130.000000 	 0.000000 	 
183 	 219 	 102 	 161.590000 	 200.000000 	 130.000000 	 0.000000 	 
184 	 191 	 190 	 136.290000 	 100.000000 	 130.000000 	 0.000000 	 
185 	 190 	 105 	 57.230000 	 125.000000 	 130.000000 	 0.000000 	 
186 	 105 	 189 	 164.020000 	 125.000000 	 130.000000 	 0.000000 	 
187 	 189 	 35 	 192.860000 	 125.000000 	 130.000000 	 0.000000 	 
188 	 105 	 104 	 234.580000 	 100.000000 	 130.000000 	 0.000000 	 
189 	 104 	 103 	 215.820000 	 100.000000 	 130.000000 	 0.000000 	 
190 	 102 	 103 	 231.930000 	 100.000000 	 130.000000 	 0.000000 	 
191 	 91 	 138 	 134.120000 	 150.000000 	 130.000000 	 0.000000 	 
192 	 138 	 112 	 175.330000 	 150.000000 	 130.000000 	 0.000000 	 
193 	 112 	 113 	 231.120000 	 150.000000 	 130.000000 	 0.000000 	 
194 	 112 	 92 	 607.940000 	 100.000000 	 130.000000 	 0.000000 	 
195 	 257 	 147 	 122.130000 	 150.000000 	 130.000000 	 0.000000 	 
196 	 147 	 63 	 40.060000 	 150.000000 	 130.000000 	 0.000000 	 
197 	 63 	 64 	 301.370000 	 150.000000 	 130.000000 	 0.000000 	 
198 	 64 	 65 	 102.070000 	 125.000000 	 130.000000 	 0.000000 	 
199 	 65 	 80 	 1094.730000 	 100.000000 	 130.000000 	 0.000000 	 
200 	 65 	 66 	 199.730000 	 100.000000 	 130.000000 	 0.000000 	 
201 	 66 	 67 	 160.590000 	 100.000000 	 130.000000 	 0.000000 	 
202 	 67 	 68 	 82.490000 	 100.000000 	 130.000000 	 0.000000 	 
203 	 80 	 266 	 137.420000 	 100.000000 	 130.000000 	 0.000000 	 
204 	 266 	 84 	 229.410000 	 100.000000 	 130.000000 	 0.000000 	 
205 	 84 	 267 	 111.380000 	 125.000000 	 130.000000 	 0.000000 	 
206 	 267 	 85 	 105.080000 	 125.000000 	 130.000000 	 0.000000 	 
207 	 85 	 173 	 292.340000 	 125.000000 	 130.000000 	 0.000000 	 
208 	 173 	 172 	 47.390000 	 125.000000 	 130.000000 	 0.000000 	 
209 	 172 	 92 	 324.070000 	 125.000000 	 130.000000 	 0.000000 	 
210 	 93 	 268 	 120.760000 	 100.000000 	 130.000000 	 0.000000 	 
211 	 268 	 114 	 187.570000 	 100.000000 	 130.000000 	 0.000000 	 
212 	 89 	 92 	 314.620000 	 150.000000 	 130.000000 	 0.000000 	 
213 	 92 	 93 	 157.180000 	 100.000000 	 130.000000 	 0.000000 	 
214 	 93 	 238 	 103.320000 	 100.000000 	 130.000000 	 0.000000 	 
215 	 238 	 133 	 308.210000 	 100.000000 	 130.000000 	 0.000000 	 
216 	 133 	 239 	 205.050000 	 100.000000 	 130.000000 	 0.000000 	 
217 	 239 	 134 	 234.720000 	 100.000000 	 130.000000 	 0.000000 	 
218 	 134 	 162 	 109.110000 	 150.000000 	 130.000000 	 0.000000 	 
219 	 162 	 163 	 262.040000 	 150.000000 	 130.000000 	 0.000000 	 
220 	 163 	 240 	 152.570000 	 150.000000 	 130.000000 	 0.000000 	 
221 	 240 	 135 	 240.230000 	 150.000000 	 130.000000 	 0.000000 	 
222 	 114 	 113 	 381.950000 	 100.000000 	 130.000000 	 0.000000 	 
223 	 113 	 115 	 374.770000 	 100.000000 	 130.000000 	 0.000000 	 
224 	 115 	 236 	 318.590000 	 125.000000 	 130.000000 	 0.000000 	 
225 	 236 	 111 	 104.730000 	 125.000000 	 130.000000 	 0.000000 	 
226 	 111 	 220 	 43.250000 	 100.000000 	 130.000000 	 0.000000 	 
227 	 220 	 122 	 406.870000 	 100.000000 	 130.000000 	 0.000000 	 
228 	 122 	 123 	 386.740000 	 100.000000 	 130.000000 	 0.000000 	 
229 	 123 	 175 	 106.490000 	 100.000000 	 130.000000 	 0.000000 	 
230 	 175 	 174 	 85.640000 	 100.000000 	 130.000000 	 0.000000 	 
231 	 174 	 223 	 214.060000 	 100.000000 	 130.000000 	 0.000000 	 
232 	 223 	 224 	 117.610000 	 100.000000 	 130.000000 	 0.000000 	 
233 	 224 	 124 	 203.240000 	 100.000000 	 130.000000 	 0.000000 	 
234 	 16 	 17 	 29.270000 	 100.000000 	 130.000000 	 0.000000 	 
235 	 17 	 214 	 170.940000 	 100.000000 	 130.000000 	 0.000000 	 
236 	 214 	 15 	 252.740000 	 100.000000 	 130.000000 	 0.000000 	 
237 	 15 	 213 	 325.900000 	 100.000000 	 130.000000 	 0.000000 	 
238 	 213 	 14 	 350.990000 	 100.000000 	 130.000000 	 0.000000 	 
239 	 14 	 12 	 118.260000 	 100.000000 	 130.000000 	 0.000000 	 
240 	 4 	 54 	 207.600000 	 125.000000 	 130.000000 	 0.000000 	 
241 	 54 	 55 	 285.730000 	 125.000000 	 130.000000 	 0.000000 	 
242 	 55 	 56 	 322.720000 	 125.000000 	 130.000000 	 0.000000 	 
243 	 56 	 57 	 265.110000 	 100.000000 	 130.000000 	 0.000000 	 
244 	 10 	 9 	 406.850000 	 100.000000 	 130.000000 	 0.000000 	 
245 	 9 	 8 	 518.870000 	 100.000000 	 130.000000 	 0.000000 	 
246 	 9 	 5 	 397.020000 	 100.000000 	 130.000000 	 0.000000 	 
247 	 58 	 60 	 493.320000 	 100.000000 	 130.000000 	 0.000000 	 
248 	 60 	 151 	 140.280000 	 100.000000 	 130.000000 	 0.000000 	 
249 	 151 	 152 	 195.400000 	 100.000000 	 130.000000 	 0.000000 	 
250 	 152 	 83 	 175.120000 	 100.000000 	 130.000000 	 0.000000 	 
251 	 83 	 153 	 145.500000 	 100.000000 	 130.000000 	 0.000000 	 
252 	 153 	 84 	 132.260000 	 100.000000 	 130.000000 	 0.000000 	 
253 	 218 	 62 	 54.370000 	 100.000000 	 130.000000 	 0.000000 	 
254 	 62 	 87 	 317.190000 	 100.000000 	 130.000000 	 0.000000 	 
255 	 87 	 171 	 294.190000 	 125.000000 	 130.000000 	 0.000000 	 
256 	 171 	 170 	 100.680000 	 125.000000 	 130.000000 	 0.000000 	 
257 	 170 	 92 	 238.220000 	 150.000000 	 130.000000 	 0.000000 	 
258 	 85 	 87 	 339.220000 	 100.000000 	 130.000000 	 0.000000 	 
259 	 85 	 94 	 585.540000 	 100.000000 	 130.000000 	 0.000000 	 
260 	 95 	 94 	 247.160000 	 100.000000 	 130.000000 	 0.000000 	 
261 	 94 	 254 	 148.810000 	 100.000000 	 130.000000 	 0.000000 	 
262 	 254 	 99 	 102.140000 	 100.000000 	 130.000000 	 0.000000 	 
263 	 99 	 255 	 387.720000 	 100.000000 	 130.000000 	 0.000000 	 
264 	 255 	 132 	 289.010000 	 100.000000 	 130.000000 	 0.000000 	 
265 	 132 	 133 	 282.410000 	 100.000000 	 130.000000 	 0.000000 	 
266 	 79 	 82 	 232.850000 	 100.000000 	 130.000000 	 0.000000 	 
267 	 82 	 81 	 210.570000 	 100.000000 	 130.000000 	 0.000000 	 
268 	 81 	 80 	 49.940000 	 100.000000 	 130.000000 	 0.000000 	 
269 	 80 	 83 	 280.350000 	 100.000000 	 130.000000 	 0.000000 	 
270 	 83 	 62 	 331.040000 	 100.000000 	 130.000000 	 0.000000 	 
271 	 62 	 86 	 225.620000 	 100.000000 	 130.000000 	 0.000000 	 
272 	 86 	 88 	 187.690000 	 125.000000 	 130.000000 	 0.000000 	 
273 	 88 	 233 	 157.870000 	 100.000000 	 130.000000 	 0.000000 	 
274 	 233 	 201 	 243.890000 	 100.000000 	 130.000000 	 0.000000 	 
275 	 201 	 100 	 101.290000 	 100.000000 	 130.000000 	 0.000000 	 
276 	 132 	 165 	 356.710000 	 100.000000 	 130.000000 	 0.000000 	 
277 	 165 	 164 	 69.680000 	 100.000000 	 130.000000 	 0.000000 	 
278 	 164 	 134 	 155.340000 	 100.000000 	 130.000000 	 0.000000 	 
279 	 134 	 126 	 906.520000 	 100.000000 	 130.000000 	 0.000000 	 
280 	 126 	 127 	 315.000000 	 100.000000 	 130.000000 	 0.000000 	 
281 	 113 	 169 	 632.680000 	 150.000000 	 130.000000 	 0.000000 	 
282 	 169 	 126 	 184.150000 	 100.000000 	 130.000000 	 0.000000 	 
283 	 127 	 244 	 123.240000 	 100.000000 	 130.000000 	 0.000000 	 
284 	 244 	 243 	 67.540000 	 100.000000 	 130.000000 	 0.000000 	 
285 	 243 	 128 	 140.380000 	 100.000000 	 130.000000 	 0.000000 	 
286 	 128 	 129 	 382.620000 	 100.000000 	 130.000000 	 0.000000 	 
287 	 106 	 237 	 294.040000 	 100.000000 	 130.000000 	 0.000000 	 
288 	 237 	 107 	 406.020000 	 100.000000 	 130.000000 	 0.000000 	 
289 	 107 	 108 	 111.830000 	 100.000000 	 130.000000 	 0.000000 	 
290 	 109 	 188 	 457.930000 	 350.000000 	 130.000000 	 0.000000 	 
291 	 188 	 51 	 165.680000 	 350.000000 	 130.000000 	 0.000000 	 
292 	 51 	 52 	 38.630000 	 350.000000 	 130.000000 	 0.000000 	 
293 	 52 	 256 	 422.280000 	 100.000000 	 130.000000 	 0.000000 	 
294 	 256 	 120 	 243.490000 	 100.000000 	 130.000000 	 0.000000 	 
295 	 120 	 118 	 220.110000 	 100.000000 	 130.000000 	 0.000000 	 
296 	 120 	 119 	 204.870000 	 100.000000 	 130.000000 	 0.000000 	 
297 	 119 	 117 	 111.090000 	 100.000000 	 130.000000 	 0.000000 	 
298 	 119 	 116 	 205.380000 	 100.000000 	 130.000000 	 0.000000 	 
299 	 119 	 118 	 55.480000 	 100.000000 	 130.000000 	 0.000000 	 
300 	 35 	 47 	 110.860000 	 200.000000 	 130.000000 	 0.000000 	 
301 	 47 	 187 	 112.890000 	 100.000000 	 130.000000 	 0.000000 	 
302 	 187 	 44 	 77.840000 	 100.000000 	 130.000000 	 0.000000 	 
303 	 44 	 43 	 153.460000 	 100.000000 	 130.000000 	 0.000000 	 
304 	 43 	 42 	 464.020000 	 100.000000 	 130.000000 	 0.000000 	 
305 	 42 	 41 	 481.270000 	 100.000000 	 130.000000 	 0.000000 	 
306 	 49 	 185 	 214.320000 	 200.000000 	 130.000000 	 0.000000 	 
307 	 185 	 186 	 383.550000 	 200.000000 	 130.000000 	 0.000000 	 
308 	 186 	 52 	 96.320000 	 200.000000 	 130.000000 	 0.000000 	 
309 	 44 	 45 	 90.520000 	 100.000000 	 130.000000 	 0.000000 	 
310 	 45 	 46 	 184.640000 	 100.000000 	 130.000000 	 0.000000 	 
311 	 46 	 50 	 291.380000 	 100.000000 	 130.000000 	 0.000000 	 
312 	 50 	 51 	 260.280000 	 100.000000 	 130.000000 	 0.000000 	 
313 	 47 	 48 	 28.450000 	 200.000000 	 130.000000 	 0.000000 	 
330 	 272 	 136 	 100.000000 	 200.000000 	 130.000000 	 0.000000 	 
331 	 271 	 1 	 1000.000000 	 250.000000 	 130.000000 	 0.000000 	 
335 	 269 	 52 	 1.000000 	 400.000000 	 130.000000 	 0.000000 	 
336 	 270 	 209 	 1.000000 	 200.000000 	 130.000000 	 0.000000 	 
addP-123-1 	 6 	 add_node-123-1 	 223.021716 	 125.000000 	 130.000000 	 0.000000 	 Open
addP-123-2 	 add_node-123-1 	 28 	 303.718284 	 125.000000 	 130.000000 	 0.000000 	 
add_node-123-1leak-pipe2-r 	 add_node-123-1 	 add_node-123-1-R2-r 	 0.152400 	 25.400000 	 1000000.000000 	 2.777800 	 CV

[EMITTERS]
1 	 20.000000 	 0.000000
2 	 20.000000 	 0.000000
3 	 20.000000 	 0.000000
4 	 20.000000 	 0.000000
5 	 20.000000 	 0.000000
6 	 20.000000 	 0.000000
7 	 20.000000 	 0.000000
8 	 20.000000 	 0.000000
9 	 20.000000 	 0.000000
11 	 20.000000 	 0.000000
12 	 20.000000 	 0.000000
13 	 20.000000 	 0.000000
14 	 20.000000 	 0.000000
15 	 20.000000 	 0.000000
16 	 20.000000 	 0.000000
17 	 20.000000 	 0.000000
18 	 20.000000 	 0.000000
19 	 20.000000 	 0.000000
20 	 20.000000 	 0.000000
21 	 20.000000 	 0.000000
22 	 20.000000 	 0.000000
23 	 20.000000 	 0.000000
24 	 20.000000 	 0.000000
25 	 20.000000 	 0.000000
26 	 20.000000 	 0.000000
27 	 20.000000 	 0.000000
28 	 20.000000 	 0.000000
29 	 20.000000 	 0.000000
30 	 20.000000 	 0.000000
31 	 20.000000 	 0.000000
32 	 20.000000 	 0.000000
33 	 20.000000 	 0.000000
34 	 20.000000 	 0.000000
35 	 20.000000 	 0.000000
36 	 20.000000 	 0.000000
37 	 20.000000 	 0.000000
38 	 20.000000 	 0.000000
39 	 20.000000 	 0.000000
40 	 20.000000 	 0.000000
41 	 20.000000 	 0.000000
42 	 20.000000 	 0.000000
43 	 20.000000 	 0.000000
44 	 20.000000 	 0.000000
45 	 20.000000 	 0.000000
46 	 20.000000 	 0.000000
47 	 20.000000 	 0.000000
48 	 20.000000 	 0.000000
49 	 20.000000 	 0.000000
50 	 20.000000 	 0.000000
51 	 20.000000 	 0.000000
52 	 20.000000 	 0.000000
53 	 20.000000 	 0.000000
54 	 20.000000 	 0.000000
55 	 20.000000 	 0.000000
56 	 20.000000 	 0.000000
57 	 20.000000 	 0.000000
58 	 20.000000 	 0.000000
59 	 20.000000 	 0.000000
60 	 20.000000 	 0.000000
61 	 20.000000 	 0.000000
62 	 20.000000 	 0.000000
63 	 20.000000 	 0.000000
64 	 20.000000 	 0.000000
65 	 20.000000 	 0.000000
66 	 20.000000 	 0.000000
67 	 20.000000 	 0.000000
68 	 20.000000 	 0.000000
69 	 20.000000 	 0.000000
70 	 20.000000 	 0.000000
71 	 20.000000 	 0.000000
72 	 20.000000 	 0.000000
73 	 20.000000 	 0.000000
74 	 20.000000 	 0.000000
75 	 20.000000 	 0.000000
76 	 20.000000 	 0.000000
77 	 20.000000 	 0.000000
78 	 20.000000 	 0.000000
79 	 20.000000 	 0.000000
80 	 20.000000 	 0.000000
81 	 20.000000 	 0.000000
82 	 20.000000 	 0.000000
83 	 20.000000 	 0.000000
84 	 20.000000 	 0.000000
85 	 20.000000 	 0.000000
86 	 20.000000 	 0.000000
87 	 20.000000 	 0.000000
88 	 20.000000 	 0.000000
89 	 20.000000 	 0.000000
90 	 20.000000 	 0.000000
91 	 20.000000 	 0.000000
92 	 20.000000 	 0.000000
93 	 20.000000 	 0.000000
94 	 20.000000 	 0.000000
95 	 20.000000 	 0.000000
96 	 20.000000 	 0.000000
97 	 20.000000 	 0.000000
98 	 20.000000 	 0.000000
99 	 20.000000 	 0.000000
111 	 20.000000 	 0.000000
112 	 20.000000 	 0.000000
113 	 20.000000 	 0.000000
114 	 20.000000 	 0.000000
115 	 20.000000 	 0.000000
116 	 20.000000 	 0.000000
117 	 20.000000 	 0.000000
118 	 20.000000 	 0.000000
119 	 20.000000 	 0.000000
120 	 20.000000 	 0.000000
121 	 20.000000 	 0.000000
122 	 20.000000 	 0.000000
123 	 20.000000 	 0.000000
124 	 20.000000 	 0.000000
125 	 20.000000 	 0.000000
126 	 20.000000 	 0.000000
127 	 20.000000 	 0.000000
128 	 20.000000 	 0.000000
129 	 20.000000 	 0.000000
130 	 20.000000 	 0.000000
131 	 20.000000 	 0.000000
132 	 20.000000 	 0.000000
133 	 20.000000 	 0.000000
134 	 20.000000 	 0.000000
135 	 20.000000 	 0.000000
136 	 20.000000 	 0.000000
137 	 20.000000 	 0.000000
138 	 20.000000 	 0.000000
139 	 20.000000 	 0.000000
140 	 20.000000 	 0.000000
141 	 20.000000 	 0.000000
142 	 20.000000 	 0.000000
143 	 20.000000 	 0.000000
144 	 20.000000 	 0.000000
145 	 20.000000 	 0.000000
146 	 20.000000 	 0.000000
147 	 20.000000 	 0.000000
148 	 20.000000 	 0.000000
149 	 20.000000 	 0.000000
150 	 20.000000 	 0.000000
151 	 20.000000 	 0.000000
152 	 20.000000 	 0.000000
153 	 20.000000 	 0.000000
154 	 20.000000 	 0.000000
155 	 20.000000 	 0.000000
156 	 20.000000 	 0.000000
157 	 20.000000 	 0.000000
158 	 20.000000 	 0.000000
159 	 20.000000 	 0.000000
160 	 20.000000 	 0.000000
161 	 20.000000 	 0.000000