[TITLE]								
"modena -- Bragalli, D'Ambrosio, Lee, Lodi, Toth (2008)"								
								
[JUNCTIONS]								
;ID              	Elev        	Demand      	Pattern         					
1	39.49	0.06	                	; 				
2	39.62	1.45	                	; 				
3	38.7	5.13	                	; 				
4	37.25	2.76	                	; 				
5	36.27	0.96	                	; 				
6	35.95	0.78	                	; 				
7	35.95	1.03	                	; 				
8	36.09	2.12	                	; 				
9	36.18	1.16	                	; 				
10	37	1.78	                	; 				
11	36.5	0.44	                	; 				
12	37.39	0.03	                	; 				
13	38.07	0.57	                	; 				
14	37.02	0.36	                	; 				
15	41.26	3.3	                	; 				
16	39.35	0.03	                	; 				
17	39.53	2.1	                	; 				
18	36.59	4.67	                	; 				
19	36.76	0	                	; 				
20	37.72	1.53	                	; 				
21	37.31	4.61	                	; 				
22	37.62	1.06	                	; 				
23	36.99	1.32	                	; 				
24	35.2	2.74	                	; 				
25	35.11	0.59	                	; 				
26	34.65	0.45	                	; 				
27	34.33	0.64	                	; 				
28	36.15	7.11	                	; 				
29	36.3	0.93	                	; 				
30	36.1	0.04	                	; 				
31	36.14	0.02	                	; 				
32	35.8	2.93	                	; 				
33	33.26	2.34	                	; 				
34	33.34	1.94	                	; 				
35	33.51	1.19	                	; 				
36	32.7	1.41	                	; 				
37	32.65	2.98	                	; 				
38	32.56	2.11	                	; 				
39	33.56	7.74	                	; 				
40	31.59	4.29	                	; 				
41	31.38	7.78	                	; 				
42	32.67	3.75	                	; 				
43	33.5	2.37	                	; 				
44	33.57	1.42	                	; 				
45	33.77	0.32	                	; 				
46	34.14	1.14	                	; 				
47	33.68	1.23	                	; 				
48	33.71	1.37	                	; 				
49	31.68	1.18	                	; 				
50	33.34	1.81	                	; 				
51	32.83	0.97	                	; 				
52	32.78	0.55	                	; 				
53	39.28	2.77	                	; 				
54	37.12	0.65	                	; 				
55	36.48	1.38	                	; 				
56	36.42	8.28	                	; 				
57	36.13	1.22	                	; 				
58	36.05	3.85	                	; 				
59	36.77	2.62	                	; 				
60	35.48	2.78	                	; 				
61	35.05	1.56	                	; 				
62	35.1	1.16	                	; 				
63	37.95	1.22	                	; 				
64	38.44	2.93	                	; 				
65	37.81	1.13	                	; 				
66	38.22	1.12	                	; 				
67	38.73	0.48	                	; 				
68	38.95	1.37	                	; 				
69	39.7	2.26	                	; 				
70	40.59	1.31	                	; 				
71	40.81	1.06	                	; 				
72	41.06	0.38	                	; 				
73	41.45	1.76	                	; 				
74	41.83	0.56	                	; 				
75	41.44	0	                	; 				
76	41.09	4.64	                	; 				
77	40.74	1.03	                	; 				
78	38.6	3.08	                	; 				
79	36.91	1.6	                	; 				
80	36.75	4.49	                	; 				
81	36.81	1.25	                	; 				
82	37.05	0.87	                	; 				
83	35.88	0.72	                	; 				
84	36.45	0.49	                	; 				
85	36.16	3.92	                	; 				
86	34.99	0.94	                	; 				
87	35.61	3.33	                	; 				
88	34.89	4.17	                	; 				
89	35.59	1.44	                	; 				
90	35.7	1.84	                	; 				
91	35.2	2	                	; 				
92	35.64	2.24	                	; 				
93	35.93	0.2	                	; 				
94	37.64	2.27	                	; 				
95	37.17	1.44	                	; 				
96	37.1	2.67	                	; 				
97	36.97	0.6	                	; 				
98	37	2.76	                	; 				
99	36.74	0.05	                	; 				
100	34.78	2.06	                	; 				
101	34.26	3.19	                	; 				
102	33.66	4.69	                	; 				
103	33.78	1.7	                	; 				
104	33.75	0.02	                	; 				
105	33.38	0.1	                	; 				
106	34.85	1.11	                	; 				
107	34.27	1.02	                	; 				
108	34.3	0.88	                	; 				
109	33.95	2.33	                	; 				
110	33.92	0.31	                	; 				
111	32.32	0.45	                	; 				
112	34.76	2.96	                	; 				
113	34.21	8.12	                	; 				
114	34.92	1.76	                	; 				
115	32.96	5.96	                	; 				
116	30.69	0	                	; 				
117	30.59	6.34	                	; 				
118	30.73	0	                	; 				
119	30.7	0	                	; 				
120	31.02	3.03	                	; 				
121	31.03	1.85	                	; 				
122	31.75	1.77	                	; 				
123	32	1.48	                	; 				
124	32.05	0	                	; 				
125	32.1	1.32	                	; 				
126	33.76	2.24	                	; 				
127	32.27	1.26	                	; 				
128	31.86	5.39	                	; 				
129	32.42	1	                	; 				
130	33	1.61	                	; 				
131	33.63	4.71	                	; 				
132	36.37	2.64	                	; 				
133	35.69	2.11	                	; 				
134	35.52	1.51	                	; 				
135	35.56	0.84	                	; 				
136	35.92	1.05	                	; 				
137	35.37	1.16	                	; 				
138	35.06	2.45	                	; 				
139	34.12	1.66	                	; 				
140	39.35	0	                	; 				
141	39.1	0	                	; 				
142	39.84	0	                	; 				
143	39.84	0.8	                	; 				
144	39.45	0.33	                	; 				
145	39.7	0.34	                	; 				
146	37.95	1.02	                	; 				
147	37.61	1.23	                	; 				
148	37.95	0.09	                	; 				
149	35.69	0.43	                	; 				
150	35.32	1.56	                	; 				
151	35.81	0.8	                	; 				
152	35.81	1.38	                	; 				
153	36.02	0.53	                	; 				
154	38.25	0.59	                	; 				
155	37.5	2.33	                	; 				
156	37.54	0.03	                	; 				
157	37.08	0.31	                	; 				
158	36.76	8.49	                	; 				
159	35.88	0.32	                	; 				
160	35.77	0.21	                	; 				
161	34.7	0.02	                	; 				
162	35.37	1.23	                	; 				
163	34.99	0.99	                	; 				
164	35.93	0.55	                	; 				
165	36.27	0.78	                	; 				
166	32.67	0.27	                	; 				
167	32.75	0.27	                	; 				
168	32.88	0.07	                	; 				
169	34.09	9.47	                	; 				
170	36.09	2.64	                	; 				
171	36.05	1.02	                	; 				
172	36.04	0.88	                	; 				
173	36.02	0.49	                	; 				
174	31.76	0	                	; 				
175	31.91	1.12	                	; 				
176	31.8	0	                	; 				
177	31.48	0	                	; 				
178	31.12	0.01	                	; 				
179	31.1	0	                	; 				
180	31.19	0	                	; 				
181	30.39	0	                	; 				
182	30.55	0.01	                	; 				
183	31.13	1.84	                	; 				
184	31.81	0.04	                	; 				
185	32.34	1.68	                	; 				
186	32.83	2.37	                	; 				
187	33.69	0.09	                	; 				
188	33.17	1.23	                	; 				
189	33.23	3.9	                	; 				
190	33.34	1.17	                	; 				
191	33.77	1.7	                	; 				
192	33.77	2.15	                	; 				
193	32.2	4	                	; 				
194	34.41	4.46	                	; 				
195	33.39	0.05	                	; 				
196	34.34	0.01	                	; 				
197	35.03	4.12	                	; 				
198	34.44	0.39	                	; 				
199	34.53	0.15	                	; 				
200	34.94	1.82	                	; 				
201	34.7	3.43	                	; 				
202	36.7	0.62	                	; 				
203	36.2	4.17	                	; 				
204	35.03	2.26	                	; 				
205	36.77	1.01	                	; 				
206	36.2	0.54	                	; 				
207	37.88	0.77	                	; 				
208	38.03	0.33	                	; 				
209	36.86	1.15	                	; 				
210	37.24	1.53	                	; 				
211	36.66	0	                	; 				
212	36.49	0.3	                	; 				
213	37.3	0.32	                	; 				
214	40.3	0.56	                	; 				
215	39.85	0	                	; 				
216	41	0.19	                	; 				
217	41.16	1.42	                	; 				
218	35.05	0.59	                	; 				
219	33.92	1.48	                	; 				
220	32.14	0.92	                	; 				
221	34.17	0.33	                	; 				
222	35.1	0.06	                	; 				
223	31.55	0.46	                	; 				
224	31.75	0.72	                	; 				
225	32.07	0	                	; 				
226	31.94	0	                	; 				
227	31.66	0.2	                	; 				
228	31.04	0.08	                	; 				
229	31.05	1.3	                	; 				
230	38.49	1.07	                	; 				
231	35.68	1.03	                	; 				
232	35.39	0.03	                	; 				
233	34.89	1.15	                	; 				
234	34.86	1.43	                	; 				
235	34.99	4.86	                	; 				
236	32.54	4.71	                	; 				
237	34.41	1.34	                	; 				
238	36.16	1.87	                	; 				
239	35.3	0.82	                	; 				
240	35.17	0.94	                	; 				
241	32.92	0.09	                	; 				
242	33.07	1.28	                	; 				
243	31.91	0.43	                	; 				
244	32	0.51	                	; 				
245	32.05	0	                	; 				
246	32.05	0.01	                	; 				
247	30.7	0.01	                	; 				
248	31.33	0	                	; 				
249	36.3	1.75	                	; 				
250	35.83	1.03	                	; 				
251	36.95	1.26	                	; 				
252	38.01	1.36	                	; 				
253	36.65	0.14	                	; 				
254	36.91	0	                	; 				
255	36.77	1.96	                	; 				
256	31.5	2.21	                	; 				
257	38.65	0.62	                	; 				
258	39.54	0	                	; 				
259	39.58	0.5	                	; 				
260	39.58	0.11	                	; 				
261	40.55	0.12	                	; 				
262	40.79	0.22	                	; 				
263	40.95	1.28	                	; 				
264	37.76	0.19	                	; 				
265	35.96	0.22	                	; 				
266	36.81	1.19	                	; 				
267	36.21	1.69	                	; 				
268	35.61	0.43	                	; 				
								
[RESERVOIRS]								
;ID              	Head        	Pattern         						
269	72	                	; 					
270	73.8	                	; 					
271	73	                	; 					
272	74.5	                	; 					
								
[TANKS]								
;ID              	Elevation   	InitLevel   	MinLevel    	MaxLevel    	Diameter    	MinVol      	VolCurve	
								
[PIPES]								
;ID              	Node1           	Node2           	Length      	Diameter    	Roughness   	MinorLoss   	Status	
1	1	16	46.84	125	130	0	Open  	; 
2	16	2	267.68	100	130	0	Open  	; 
3	2	3	541.07	100	130	0	Open  	; 
4	3	4	542.29	100	130	0	Open  	; 
5	4	5	404.72	100	130	0	Open  	; 
6	5	206	151.67	100	130	0	Open  	; 
7	206	6	341.57	100	130	0	Open  	; 
8	1	140	39.91	100	130	0	Open  	; 
9	140	143	269.73	100	130	0	Open  	; 
10	143	145	45.92	100	130	0	Open  	; 
11	145	146	890.09	100	130	0	Open  	; 
12	146	148	33.79	100	130	0	Open  	; 
13	148	63	6.03	100	130	0	Open  	; 
14	63	149	367.92	125	130	0	Open  	; 
15	149	150	97.66	125	130	0	Open  	; 
16	150	60	322.19	100	130	0	Open  	; 
17	60	61	359.48	100	130	0	Open  	; 
18	61	218	199.59	100	130	0	Open  	; 
19	1	141	57.06	200	130	0	Open  	; 
20	141	142	223.41	200	130	0	Open  	; 
21	142	144	47.03	200	130	0	Open  	; 
22	144	257	782.67	200	130	0	Closed	; 
23	257	53	231.87	125	130	0	Open  	; 
24	53	251	279.84	100	130	0	Open  	; 
25	251	57	145.7	100	130	0	Open  	; 
26	57	58	81.1	100	130	0	Open  	; 
27	58	59	550.17	100	130	0	Open  	; 
28	53	230	155.63	100	130	0	Open  	; 
29	230	252	357.81	100	130	0	Open  	; 
30	252	3	267.32	100	130	0	Open  	; 
31	3	13	612.5	100	130	0	Open  	; 
32	13	12	160.5	100	130	0	Closed	; 
33	12	11	531.71	100	130	0	Open  	; 
34	1	258	41.91	200	130	0	Closed	; 
35	258	259	95.22	200	130	0	Open  	; 
36	259	260	25.13	200	130	0	Open  	; 
37	260	215	158.12	200	130	0	Open  	; 
38	215	261	95.4	200	130	0	Open  	; 
39	261	77	52.92	200	130	0	Open  	; 
40	77	262	44.92	200	130	0	Closed	; 
41	262	216	127.05	200	130	0	Open  	; 
42	216	263	56.68	200	130	0	Open  	; 
43	263	76	181.29	200	130	0	Open  	; 
44	76	217	220.9	200	130	0	Open  	; 
45	217	75	67.65	200	130	0	Open  	; 
46	75	74	36.06	200	130	0	Open  	; 
47	74	73	242.29	150	130	0	Open  	; 
48	73	72	70.45	150	130	0	Open  	; 
49	72	71	112.83	150	130	0	Open  	; 
50	71	70	105.72	150	130	0	Open  	; 
51	70	69	199.42	150	130	0	Open  	; 
52	69	68	180.64	125	130	0	Open  	; 
53	68	78	288.76	125	130	0	Open  	; 
54	78	154	69.26	100	130	0	Open  	; 
55	154	79	718.45	100	130	0	Open  	; 
56	79	155	390.78	100	130	0	Open  	; 
57	155	156	24	125	130	0	Open  	; 
58	156	95	504.52	125	130	0	Open  	; 
59	95	96	41.78	150	130	0	Open  	; 
60	96	97	367.93	150	130	0	Open  	; 
61	97	157	101.86	150	130	0	Open  	; 
62	157	98	125.36	150	130	0	Open  	; 
63	98	158	699.76	150	130	0	Open  	; 
64	158	136	448.05	200	130	0	Open  	; 
65	136	159	114.29	200	130	0	Open  	; 
66	159	160	197.3	200	130	0	Open  	; 
67	160	137	235.98	200	130	0	Open  	; 
68	137	135	224.87	200	130	0	Open  	; 
69	135	222	176.73	125	130	0	Open  	; 
70	222	161	76.44	100	130	0	Open  	; 
71	161	131	356.94	100	130	0	Open  	; 
72	131	242	443.79	100	130	0	Open  	; 
73	242	130	20.55	100	130	0	Open  	; 
74	130	241	113.33	100	130	0	Open  	; 
75	241	168	25.96	100	130	0	Open  	; 
76	168	167	145.04	100	130	0	Open  	; 
77	167	166	55.24	100	130	0	Open  	; 
78	166	129	208.22	100	130	0	Open  	; 
79	129	125	190.43	100	130	0	Open  	; 
80	125	246	70.98	100	130	0	Open  	; 
81	246	245	52.04	100	130	0	Open  	; 
82	245	124	34.03	100	130	0	Open  	; 
83	124	225	79.47	100	130	0	Open  	; 
84	225	226	277.99	100	130	0	Open  	; 
85	176	227	86.03	100	130	0	Open  	; 
86	227	177	296.25	100	130	0	Open  	; 
87	177	180	111.3	100	130	0	Open  	; 
88	180	178	123.37	100	130	0	Open  	; 
89	178	179	196.27	100	130	0	Open  	; 
90	179	228	198.46	100	130	0	Open  	; 
91	228	229	75.62	100	130	0	Closed	; 
92	229	121	110.14	100	130	0	Closed	; 
93	121	118	423.57	100	130	0	Open  	; 
94	118	117	116.57	100	130	0	Open  	; 
95	117	181	100.61	100	130	0	Open  	; 
96	181	182	164.84	100	130	0	Open  	; 
97	182	116	47.49	100	130	0	Open  	; 
98	116	247	87.54	100	130	0	Open  	; 
99	49	184	189.27	150	130	0	Closed	; 
100	184	41	244.8	150	130	0	Open  	; 
101	41	248	293.47	150	130	0	Open  	; 
102	248	40	308.64	150	130	0	Open  	; 
103	40	39	566.57	150	130	0	Open  	; 
104	226	176	95.14	100	130	0	Open  	; 
105	247	183	248.55	100	130	0	Open  	; 
106	183	49	187.78	100	130	0	Open  	; 
107	39	38	357.67	125	130	0	Open  	; 
108	38	37	700.57	100	130	0	Open  	; 
109	37	193	404.46	100	130	0	Open  	; 
110	193	36	160.86	125	130	0	Open  	; 
111	36	194	557.42	125	130	0	Open  	; 
112	194	27	127.02	150	130	0	Closed	; 
113	27	26	46.66	150	130	0	Open  	; 
114	26	195	674.32	150	130	0	Open  	; 
115	195	33	50.76	125	130	0	Open  	; 
116	26	196	138.54	100	130	0	Open  	; 
117	196	25	199.33	100	130	0	Open  	; 
118	25	232	231.12	100	130	0	Open  	; 
119	232	24	187.06	100	130	0	Closed	; 
120	24	231	240.64	100	130	0	Open  	; 
121	231	7	173.44	125	130	0	Open  	; 
122	7	6	23.58	100	130	0	Open  	; 
123	6	28	526.74	125	130	0	Closed	; 
124	28	249	500.72	100	130	0	Open  	; 
125	249	29	15.29	100	130	0	Open  	; 
126	7	8	265.92	125	130	0	Open  	; 
127	8	23	355.51	125	130	0	Closed	; 
128	23	207	189.78	125	130	0	Open  	; 
129	207	208	28.18	125	130	0	Open  	; 
130	208	22	129.34	125	130	0	Open  	; 
131	22	21	361.24	125	130	0	Open  	; 
132	21	264	223.52	150	130	0	Open  	; 
133	20	210	185.17	150	130	0	Closed	; 
134	210	209	154.95	150	130	0	Open  	; 
135	209	19	34.71	200	130	0	Open  	; 
136	264	20	31.14	150	130	0	Open  	; 
137	19	253	42.52	200	130	0	Open  	; 
138	253	18	356.45	200	130	0	Open  	; 
139	18	211	128.82	200	130	0	Open  	; 
140	211	212	140.66	200	130	0	Open  	; 
141	212	11	113.32	200	130	0	Open  	; 
142	11	10	555.23	150	130	0	Open  	; 
143	10	4	272.68	150	130	0	Open  	; 
144	59	203	315.88	100	130	0	Open  	; 
145	203	202	284.93	100	130	0	Open  	; 
146	202	31	97.93	125	130	0	Closed	; 
147	265	32	262.94	100	130	0	Open  	; 
148	32	33	635.82	100	130	0	Open  	; 
149	33	34	415.73	150	130	0	Open  	; 
150	34	35	122.6	150	130	0	Open  	; 
151	265	31	29.56	100	130	0	Open  	; 
152	59	205	33.8	100	130	0	Closed	; 
153	205	88	377.12	100	130	0	Open  	; 
154	88	89	629.17	150	130	0	Open  	; 
155	89	90	133.28	200	130	0	Open  	; 
156	90	91	348.05	200	130	0	Open  	; 
157	91	234	292.89	300	130	0	Open  	; 
158	234	109	488.99	300	130	0	Open  	; 
159	138	235	289.88	100	130	0	Open  	; 
160	235	110	486.72	100	130	0	Open  	; 
161	102	106	260.92	200	130	0	Open  	; 
162	106	91	163.58	200	130	0	Open  	; 
163	48	108	424.07	200	130	0	Open  	; 
164	108	109	173.66	200	130	0	Open  	; 
165	109	110	99.55	150	130	0	Closed	; 
166	110	111	307.92	150	130	0	Open  	; 
167	59	204	283.84	100	130	0	Open  	; 
168	204	200	141.49	125	130	0	Open  	; 
169	200	100	58.27	125	130	0	Open  	; 
170	100	199	79.59	150	130	0	Closed	; 
171	199	198	39.41	150	130	0	Open  	; 
172	198	101	126.25	150	130	0	Open  	; 
173	29	30	61.39	100	130	0	Open  	; 
174	30	31	73.73	100	130	0	Closed	; 
175	31	250	83.16	125	130	0	Closed	; 
176	250	197	118.22	150	130	0	Open  	; 
177	197	101	297.21	150	130	0	Open  	; 
178	101	221	17.08	200	130	0	Open  	; 
179	221	139	58.11	200	130	0	Open  	; 
180	139	219	135.5	200	130	0	Open  	; 
181	139	192	255.85	100	130	0	Open  	; 
182	192	191	40.65	100	130	0	Open  	; 
183	219	102	161.59	200	130	0	Open  	; 
184	191	190	136.29	100	130	0	Open  	; 
185	190	105	57.23	125	130	0	Open  	; 
186	105	189	164.02	125	130	0	Open  	; 
187	189	35	192.86	125	130	0	Open  	; 
188	105	104	234.58	100	130	0	Open  	; 
189	104	103	215.82	100	130	0	Open  	; 
190	102	103	231.93	100	130	0	Closed	; 
191	91	138	134.12	150	130	0	Open  	; 
192	138	112	175.33	150	130	0	Open  	; 
193	112	113	231.12	150	130	0	Open  	; 
194	112	92	607.94	100	130	0	Open  	; 
195	257	147	122.13	150	130	0	Open  	; 
196	147	63	40.06	150	130	0	Open  	; 
197	63	64	301.37	150	130	0	Open  	; 
198	64	65	102.07	125	130	0	Open  	; 
199	65	80	1094.73	100	130	0	Open  	; 
200	65	66	199.73	100	130	0	Open  	; 
201	66	67	160.59	100	130	0	Open  	; 
202	67	68	82.49	100	130	0	Open  	; 
203	80	266	137.42	100	130	0	Open  	; 
204	266	84	229.41	100	130	0	Open  	; 
205	84	267	111.38	125	130	0	Open  	; 
206	267	85	105.08	125	130	0	Open  	; 
207	85	173	292.34	125	130	0	Open  	; 
208	173	172	47.39	125	130	0	Open  	; 
209	172	92	324.07	125	130	0	Open  	; 
210	93	268	120.76	100	130	0	Open  	; 
211	268	114	187.57	100	130	0	Open  	; 
212	89	92	314.62	150	130	0	Open  	; 
213	92	93	157.18	100	130	0	Open  	; 
214	93	238	103.32	100	130	0	Open  	; 
215	238	133	308.21	100	130	0	Open  	; 
216	133	239	205.05	100	130	0	Open  	; 
217	239	134	234.72	100	130	0	Open  	; 
218	134	162	109.11	150	130	0	Open  	; 
219	162	163	262.04	150	130	0	Open  	; 
220	163	240	152.57	150	130	0	Open  	; 
221	240	135	240.23	150	130	0	Open  	; 
222	114	113	381.95	100	130	0	Open  	; 
223	113	115	374.77	100	130	0	Open  	; 
224	115	236	318.59	125	130	0	Open  	; 
225	236	111	104.73	125	130	0	Open  	; 
226	111	220	43.25	100	130	0	Open  	; 
227	220	122	406.87	100	130	0	Open  	; 
228	122	123	386.74	100	130	0	Open  	; 
229	123	175	106.49	100	130	0	Open  	; 
230	175	174	85.64	100	130	0	Open  	; 
231	174	223	214.06	100	130	0	Open  	; 
232	223	224	117.61	100	130	0	Open  	; 
233	224	124	203.24	100	130	0	Open  	; 
234	16	17	29.27	100	130	0	Open  	; 
235	17	214	170.94	100	130	0	Open  	; 
236	214	15	252.74	100	130	0	Open  	; 
237	15	213	325.9	100	130	0	Open  	; 
238	213	14	350.99	100	130	0	Open  	; 
239	14	12	118.26	100	130	0	Open  	; 
240	4	54	207.6	125	130	0	Open  	; 
241	54	55	285.73	125	130	0	Closed	; 
242	55	56	322.72	125	130	0	Open  	; 
243	56	57	265.11	100	130	0	Open  	; 
244	10	9	406.85	100	130	0	Closed	; 
245	9	8	518.87	100	130	0	Open  	; 
246	9	5	397.02	100	130	0	Open  	; 
247	58	60	493.32	100	130	0	Open  	; 
248	60	151	140.28	100	130	0	Open  	; 
249	151	152	195.4	100	130	0	Open  	; 
250	152	83	175.12	100	130	0	Open  	; 
251	83	153	145.5	100	130	0	Open  	; 
252	153	84	132.26	100	130	0	Open  	; 
253	218	62	54.37	100	130	0	Open  	; 
254	62	87	317.19	100	130	0	Open  	; 
255	87	171	294.19	125	130	0	Open  	; 
256	171	170	100.68	125	130	0	Open  	; 
257	170	92	238.22	150	130	0	Open  	; 
258	85	87	339.22	100	130	0	Open  	; 
259	85	94	585.54	100	130	0	Open  	; 
260	95	94	247.16	100	130	0	Open  	; 
261	94	254	148.81	100	130	0	Closed	; 
262	254	99	102.14	100	130	0	Open  	; 
263	99	255	387.72	100	130	0	Open  	; 
264	255	132	289.01	100	130	0	Open  	; 
265	132	133	282.41	100	130	0	Open  	; 
266	79	82	232.85	100	130	0	Open  	; 
267	82	81	210.57	100	130	0	Open  	; 
268	81	80	49.94	100	130	0	Open  	; 
269	80	83	280.35	100	130	0	Open  	; 
270	83	62	331.04	100	130	0	Open  	; 
271	62	86	225.62	100	130	0	Open  	; 
272	86	88	187.69	125	130	0	Open  	; 
273	88	233	157.87	100	130	0	Open  	; 
274	233	201	243.89	100	130	0	Open  	; 
275	201	100	101.29	100	130	0	Open  	; 
276	132	165	356.71	100	130	0	Open  	; 
277	165	164	69.68	100	130	0	Open  	; 
278	164	134	155.34	100	130	0	Open  	; 
279	134	126	906.52	100	130	0	Open  	; 
280	126	127	315	100	130	0	Open  	; 
281	113	169	632.68	150	130	0	Closed	; 
282	169	126	184.15	100	130	0	Open  	; 
283	127	244	123.24	100	130	0	Open  	; 
284	244	243	67.54	100	130	0	Open  	; 
285	243	128	140.38	100	130	0	Open  	; 
286	128	129	382.62	100	130	0	Open  	; 
287	106	237	294.04	100	130	0	Open  	; 
288	237	107	406.02	100	130	0	Open  	; 
289	107	108	111.83	100	130	0	Open  	; 
290	109	188	457.93	350	130	0	Open  	; 
291	188	51	165.68	350	130	0	Open  	; 
292	51	52	38.63	350	130	0	Open  	; 
293	52	256	422.28	100	130	0	Open  	; 
294	256	120	243.49	100	130	0	Closed	; 
295	120	118	220.11	100	130	0	Open  	; 
296	120	119	204.87	100	130	0	Open  	; 
297	119	117	111.09	100	130	0	Open  	; 
298	119	116	205.38	100	130	0	Open  	; 
299	119	118	55.48	100	130	0	Open  	; 
300	35	47	110.86	200	130	0	Open  	; 
301	47	187	112.89	100	130	0	Closed	; 
302	187	44	77.84	100	130	0	Open  	; 
303	44	43	153.46	100	130	0	Closed	; 
304	43	42	464.02	100	130	0	Closed	; 
305	42	41	481.27	100	130	0	Closed	; 
306	49	185	214.32	200	130	0	Closed	; 
307	185	186	383.55	200	130	0	Open  	; 
308	186	52	96.32	200	130	0	Open  	; 
309	44	45	90.52	100	130	0	Closed	; 
310	45	46	184.64	100	130	0	Open  	; 
311	46	50	291.38	100	130	0	Open  	; 
312	50	51	260.28	100	130	0	Open  	; 
313	47	48	28.45	200	130	0	Open  	; 
330	272	136	100	200	130	0	Open  	; 
331	271	1	1000	250	130	0	Open  	; 
335	269	52	1	400	130	0	Open  	; 
336	270	209	1	200	130	0	Open  	; 
								
[PUMPS]								
;ID              	Node1           	Node2           	Parameters					
								
[VALVES]								
;ID              	Node1           	Node2           	Diameter    	Type	Setting     	MinorLoss   		
								
[TAGS]								
								
[DEMANDS]								
;Junction        	Demand      	Pattern         	Category					
								
[STATUS]								
;ID              	Status/Setting							
								
[PATTERNS]								
;ID              	Multipliers							
								
[CURVES]								
;ID              	X-Value     	Y-Value						
								
[CONTROLS]								
								
								
[RULES]								
								
								
[ENERGY]								
 Global Efficiency  	75							
 Global Price       	0							
 Demand Charge      	0							
								
[EMITTERS]								
;Junction        	Coefficient							
								
[QUALITY]								
;Node            	InitQual							
								
[SOURCES]								
;Node            	Type        	Quality     	Pattern					
								
[REACTIONS]								
;Type     	Pipe/Tank       	Coefficient						
								
								
[REACTIONS]								
 Order Bulk            	1							
 Order Tank            	1							
 Order Wall            	1							
 Global Bulk           	0							
 Global Wall           	0							
 Limiting Potential    	0							
 Roughness Correlation 	0							
								
[MIXING]								
;Tank            	Model							
								
[TIMES]								
 Duration           	0:00							
 Hydraulic Timestep 	1:00							
 Quality Timestep   	0:05							
 Pattern Timestep   	2:00							
 Pattern Start      	0:00							
 Report Timestep    	1:00							
 Report Start       	0:00							
 Start ClockTime    	12:00 AM							
 Statistic          	NONE							
								
[REPORT]								
 Status             	Yes							
 Summary            	No							
 Page               	0							
								
[OPTIONS]								
 Units              	LPS							
 Headloss           	H-W							
 Specific Gravity   	1							
 Viscosity          	1							
 Trials             	40							
 Accuracy           	0.001							
 CHECKFREQ          	2							
 MAXCHECK           	10							
 DAMPLIMIT          	0							
 Unbalanced         	Continue 10							
 Pattern            	1							
 Demand Multiplier  	1							
 Emitter Exponent   	0.5							
 Quality            	Chlorine mg/L							
 Diffusivity        	1							
 Tolerance          	0.01							
								
[COORDINATES]								
;Node            	X-Coord         	Y-Coord						
1	1650094.63	4944639						
2	1650348.88	4944585						
3	1650592.63	4945068						
4	1650829.5	4945554						
5	1651029.88	4945905.5						
6	1651232.38	4946354.5						
7	1651227.63	4946378						
8	1650986	4946490.5						
9	1650757	4946024.5						
10	1650577.5	4945659.5						
11	1650064.5	4945875						
12	1649881.13	4945376						
13	1650029.25	4945313.5						
14	1649770.5	4945419						
15	1649922.38	4944957						
16	1650100.25	4944685.5						
17	1650073.75	4944698						
18	1649896.88	4946121						
19	1650065	4946470.5						
20	1649998.63	4946733.5						
21	1650051	4946979						
22	1650379.13	4946826						
23	1650670.25	4946655						
24	1651438.88	4946731.5						
25	1651852.38	4946763						
26	1652162.25	4946635						
27	1652182.25	4946677						
28	1651699.38	4946109						
29	1652135.63	4945859.5						
30	1652188.25	4945828						
31	1652250.75	4945788.5						
32	1652137.88	4946048.5						
33	1652747.88	4946233.5						
34	1653164.75	4946233.5						
35	1653238.38	4946135.5						
36	1652471.5	4947147.5						
37	1652974.13	4946893						
38	1653000.5	4947593						
39	1652997.88	4947950						
40	1653465.13	4947628						
41	1653953.13	4947276.5						
42	1653669.25	4946887.5						
43	1653412.88	4946500.5						
44	1653325.38	4946374.5						
45	1653405.75	4946332.5						
46	1653576.75	4946261.5						
47	1653305.5	4946224						
48	1653327.63	4946206						
49	1654320.88	4947050.5						
50	1653865.63	4946305						
51	1654128.63	4946356.5						
52	1654151	4946388						
53	1651249.88	4944650						
54	1651009.13	4945449						
55	1651234.38	4945272.5						
56	1651454	4945036						
57	1651631.75	4944839						
58	1651706.13	4944872						
59	1652209.75	4945096						
60	1651938.88	4944437						
61	1652230.25	4944648.5						
62	1652461.25	4944548						
63	1651242.38	4944380.5						
64	1651105.25	4944112.5						
65	1651206	4944094						
66	1651172.75	4943897						
67	1651089.5	4943759.5						
68	1651047.88	4943688.5						
69	1650871.63	4943730						
70	1650699.5	4943831						
71	1650643.5	4943741.5						
72	1650545.13	4943797.5						
73	1650520.88	4943731						
74	1650299.25	4943830.5						
75	1650312	4943864						
76	1650129.5	4944033						
77	1650062.38	4944332.5						
78	1651328.75	4943618.5						
79	1652035.13	4943543						
80	1652295.38	4943960						
81	1652274	4943915						
82	1652177.13	4943728						
83	1652378.5	4944227.5						
84	1652613.25	4944096						
85	1652813	4944165.5						
86	1652520.5	4944765.5						
87	1652776	4944502.5						
88	1652571.63	4944946						
89	1653166.63	4944737						
90	1653208.38	4944863.5						
91	1653384.13	4945164						
92	1653347.25	4944479.5						
93	1653436.5	4944350						
94	1652876.63	4943584						
95	1652898.75	4943338						
96	1652902.5	4943296						
97	1653228.75	4943125						
98	1653309.5	4943022						
99	1653025.75	4943691.5						
100	1652573.75	4945380						
101	1652700	4945571						
102	1653007.75	4945362						
103	1653126.88	4945561.5						
104	1653249.5	4945739						
105	1653037.88	4945841.5						
106	1653240.25	4945242.5						
107	1653586	4945851.5						
108	1653657	4945938						
109	1653793.75	4945830.5						
110	1653877.13	4945776						
111	1654144.25	4945621.5						
112	1653650.88	4945006						
113	1653850.25	4944888.5						
114	1653644.13	4944567						
115	1654038.25	4945213						
116	1654814.75	4946886.5						
117	1655054.13	4946778.5						
118	1654981.88	4946686.5						
119	1654952.13	4946733.5						
120	1654764.13	4946651.5						
121	1655205.88	4946327						
122	1654560.5	4945469.5						
123	1654911.5	4945305						
124	1655494.63	4944952.5						
125	1655475.63	4944804.5						
126	1654567.88	4944497						
127	1654739.5	4944761						
128	1655066	4944789						
129	1655412.5	4944625						
130	1655182	4944156						
131	1655000.88	4943750						
132	1653583.88	4943834.5						
133	1653737	4944072						
134	1654039.88	4943759.5						
135	1654630.13	4943284						
136	1654391.75	4942756						
137	1654787.38	4943123						
138	1653500.25	4945096.5						
139	1652763.88	4945531.5						
140	1650107.63	4944676.5						
141	1650145.63	4944665						
142	1650352.5	4944579.5						
143	1650357.88	4944574.5						
144	1650376.25	4944620.5						
145	1650381.38	4944614						
146	1651251.13	4944414.5						
147	1651260.13	4944416.5						
148	1651237.25	4944384						
149	1651579	4944230.5						
150	1651645.38	4944302						
151	1652019.13	4944321.5						
152	1652208.25	4944271						
153	1652519.13	4944189.5						
154	1651329.5	4943687.5						
155	1652392.63	4943383.5						
156	1652393.38	4943359.5						
157	1653184.25	4943033						
158	1654010.5	4942993						
159	1654455.63	4942851						
160	1654626.38	4942950.5						
161	1654827.25	4943438						
162	1654111.88	4943677.5						
163	1654341	4943549.5						
164	1653947.88	4943634						
165	1653878	4943632						
166	1655342.5	4944429						
167	1655290.5	4944410						
168	1655221.38	4944282						
169	1654399.38	4944572						